LAMMPS (23 Jun 2022 - Update 3)
#################################################
# Initialize the system:
#################################################
units real
atom_style full
boundary p p f

#################################################
# Read liquid and solid files and define groups:
#################################################
read_data lj-polymer-5.data extra/atom/types 1 group LJFLUID
Reading data file ...
  orthogonal box = (-1.3 0 0) to (30.5 32.7 55)
  reading atoms ...
  1225 atoms
  reading velocities ...
  1225 velocities
  scanning bonds ...
  scanning angles ...
  scanning dihedrals ...
  reading bonds ...
  980 bonds
  reading angles ...
  735 angles
  reading dihedrals ...
  490 dihedrals
Finding 1-2 1-3 1-4 neighbors ...
     2 = max # of 1-2 neighbors
     2 = max # of 1-3 neighbors
     2 = max # of 1-4 neighbors
     4 = max # of special neighbors
read_data solid-walls-hcp.data add append offset 1 0 0 0 0 group SOLID
Reading data file ...
  orthogonal box = (-1.3 0 0) to (30.5 32.7 55)
  reading atoms ...
  724 atoms
  reading velocities ...
  724 velocities
Finding 1-2 1-3 1-4 neighbors ...
     2 = max # of 1-2 neighbors
     2 = max # of 1-3 neighbors
     2 = max # of 1-4 neighbors
     4 = max # of special neighbors

# Define regions and groups to split the SOLID into two groups
variable zmid equal (zhi-zlo)/2

region lower_wall_region block -1 EDGE -1 EDGE -1 27.5
group lower_wall_group region lower_wall_region
1035 atoms in group lower_wall_group
group LOWER_SOLID intersect lower_wall_group SOLID
362 atoms in group LOWER_SOLID

region upper_wall_region block -1 EDGE -1 EDGE 27.5 EDGE
group upper_wall_group region upper_wall_region
900 atoms in group upper_wall_group
group UPPER_SOLID intersect upper_wall_group SOLID
362 atoms in group UPPER_SOLID

#################################################
# Define relevant variables:
#################################################

variable mass_fluid equal 12
variable mass_solid equal 12
variable sigma_FF equal 3.15
variable sigma_FS equal 3.15
variable epsilon_FF	equal 0.15
variable epsilon_FS equal 0.09

variable T equal 250
variable Tthermostat equal 250*0.985
variable dens equal 0.85
variable cutoff_radius equal 10
variable tstep equal 1

variable bond_constant equal 0.544217 #Match LJ stiffness
variable bond_length equal 1.12246204831*3.15
variable angle_constant equal 5
variable bond_angle equal 110
variable dihedral_coeff_k equal -2.8
variable dihedral_coeff_n equal 1
variable dihedral_coeff_d equal -7
variable thermonum equal 1000
variable num_bins equal 30
variable num_bins_sigmafl equal 400
variable bin_width equal (zhi-zlo)/30
variable bin_width_sigmafl equal (zhi-zlo)/400

variable hundredthousandtimeshalfshear equal 170 # This makes it in m/s
variable halfshear equal 170*1e-5

#################################################
# Define interactions, bonds, dihedrals:
#################################################
# Set respective masses
mass 1 12
mass 2 12

# For non-bonded species
pair_style lj/cut 10
pair_coeff 1 1 0.15 3.15
pair_coeff 1 2 0.09 3.15
pair_coeff 2 2 0 0

# For bonds, angles and dihedrals
bond_style harmonic
bond_coeff 1 0.544217 3.5357554521765
angle_style harmonic
angle_coeff 1 5 110
dihedral_style charmm
dihedral_coeff 1 -2.8 1 -7 0.0

#######################################################
# Define computes, thermo_style, timestep and create velocity:
#######################################################

# Compute thermodynamic quantities and bonds. Define thermo_style
compute tempLJ LJFLUID temp
compute binvel all chunk/atom bin/1d z lower 1.83333333333333 nchunk once
compute binvel_sigmafl LJFLUID chunk/atom bin/1d z lower 0.1375 nchunk once
compute bondinfo all property/local batom1 batom2 btype
compute FS_upper UPPER_SOLID group/group LJFLUID
compute FS_lower LOWER_SOLID group/group LJFLUID
thermo 1000
thermo_style custom step c_tempLJ pe epair ke etotal press
neigh_modify delay 1

#######################################################
# Relax the system using nve/limit:
#######################################################
velocity LJFLUID create 250 1 rot yes dist gaussian
timestep 5

fix relax_fluid LJFLUID nve/limit 0.05
run 5000
Generated 0 of 1 mixed pair_coeff terms from geometric mixing rule
  update every 1 steps, delay 1 steps, check yes
Step        c_tempLJ        PotEng         E_pair         KinEng         TotEng         Press
0   250           -3308.1762     -844.63576      912.12788     -2396.0483      1764.9108
Loop time of 5.19373 on 4 procs for 5000 steps with 1949 atoms

unfix relax_fluid

#######################################################
# Steady state for initial forces and temperature:
#######################################################
timestep 0.5
fix temp_steady_state LJFLUID nvt temp 250 250 5000
run 50000
Generated 0 of 1 mixed pair_coeff terms from geometric mixing rule
Step        c_tempLJ        PotEng         E_pair         KinEng         TotEng         Press
5000   89.229475     -3518.0659     -968.19185      325.55477     -3192.5111      153.22977
Averages over the last 26 of 51 rows, steps 30000 to 55000:
c_tempLJ PotEng E_pair KinEng TotEng Press
157.041 -3269.9 -883.821 572.967 -2696.93 808.83
Loop time of 45.7336 on 4 procs for 50000 steps with 1949 atoms

unfix temp_steady_state

#######################################################
# Steady state for solid walls:
#######################################################

timestep 1
fix temp_steady_state LJFLUID nvt temp 250 250 5000

fix upperwall_fix UPPER_SOLID move linear 0.0017 0 0
fix lowerwall_fix LOWER_SOLID move linear -0.0017 0 0

run 100000
Generated 0 of 1 mixed pair_coeff terms from geometric mixing rule
Step        c_tempLJ        PotEng         E_pair         KinEng         TotEng         Press
55000   186.94135     -3137.2618     -833.09041      682.05766     -2455.2042      1188.3563
Averages over the last 51 of 101 rows, steps 105000 to 155000:
c_tempLJ PotEng E_pair KinEng TotEng Press
250.641 -2904.32 -778.486 944.472 -1959.84 1596.16
Loop time of 98.0244 on 4 procs for 100000 steps with 1949 atoms

unfix temp_steady_state

#######################################################
# Final run and gather data:
#######################################################
compute msd_ljfluid LJFLUID msd com yes

fix nvt_data_run LJFLUID nvt temp 250 250 25000

fix binvelocity_data all ave/chunk 1 3500 3500 binvel vx file VelProfile_170_0.85_250K.txt

fix ncount_data LJFLUID ave/chunk 1 175000 175000 binvel_sigmafl vx file Ncount_170_0.85_250K.txt

fix thermo_data all print 1000 "$(step) $(c_tempLJ) $(pe) $(ke) $(etotal) $(press)" file slipeq_run.txt screen no title "Time-step Temperature PE KE TE Pressure"

fix pressure_XZ_data all print 3500 "$(step) $(c_tempLJ) $(pxz)" file pxz_slipeq_run.txt screen no title "Time-step Temperature Pxz"

fix forces_walls_fluid_data all print 3500 "$(step) $(c_FS_upper[1]) $(c_FS_lower[1])" file forces_FS_slipeq_run.txt screen no title "Time-step Force_Upper Force_Lower"

fix msd_ljfluid_data all print 70000 "$(step) $(c_msd_ljfluid[1]) $(c_msd_ljfluid[2]) $(c_msd_ljfluid[3]) $(c_msd_ljfluid[4])" file MSD_0.85_0.15_250K.txt screen no title "Time-step MSD_X MSD_Y MSD_Z MSD"

dump trajectory_file all atom 70000 LJLAYERS_0.85_0.15_250K.lammpstrj
dump bonds_data all local 70000 bond_information.lammpstrj c_bondinfo[1] c_bondinfo[2] c_bondinfo[3]

run 3500000
Generated 0 of 1 mixed pair_coeff terms from geometric mixing rule
Step        c_tempLJ        PotEng         E_pair         KinEng         TotEng         Press
155000   246.83335     -2923.1471     -781.85089      930.57949     -1992.5676      1566.8252
Averages over the last 1751 of 3501 rows, steps 1905000 to 3655000:
c_tempLJ PotEng E_pair KinEng TotEng Press
255.446 -2893.47 -773.672 962.001 -1931.47 1636.6
Loop time of 3482.92 on 4 procs for 3500000 steps with 1949 atoms

write_restart slipeq_restart_file.txt
System init for write_restart ...
Generated 0 of 1 mixed pair_coeff terms from geometric mixing rule
